Circuit: * C:\Users\Danae\SoundActivatedLEDs\Draft1.asc

Warning: Multiple definitions of model "2scr375p" Type: BJT
Warning: Multiple definitions of model "bc857b" Type: BJT
Warning: Multiple definitions of model "bc847c" Type: BJT
Warning: Multiple definitions of model "bc847b" Type: BJT
WARNING: Less than two connections to node +5v.  This node is used by r6.
Direct Newton iteration for .op point succeeded.

Date: Wed Nov  1 19:49:00 2023
Total elapsed time: 0.416 seconds.

tnom = 27
temp = 27
method = modified trap
totiter = 20343
traniter = 20311
tranpoints = 10050
accept = 10046
rejected = 4
matrix size = 15
fillins = 3
solver = Normal
Avg thread counts: 1.1/1.3/1.3/1.1
Matrix Compiler1: 756 bytes object code size  0.3/0.2/[0.2]
Matrix Compiler2: off  [0.1]/0.2/0.2

