Circuit: * C:\Users\Danae\SoundActivatedLEDs\SoundResopnseLEDCircuit.asc

Direct Newton iteration for .op point succeeded.

Date: Sun Oct 22 16:26:33 2023
Total elapsed time: 1.287 seconds.

tnom = 27
temp = 27
method = modified trap
totiter = 200049
traniter = 200046
tranpoints = 100024
accept = 100023
rejected = 1
matrix size = 25
fillins = 9
solver = Normal
Avg thread counts: 1.0/1.0/1.0/1.0
Matrix Compiler1: 1.46 KB object code size  0.8/0.3/[0.3]
Matrix Compiler2: 2.07 KB object code size  0.3/0.4/[0.2]

