Circuit: * C:\Users\Danae\SoundActivatedLEDs\SoundResopnseLEDCircuit.asc

WARNING: Less than two connections to node nc_03.  This node is used by a:bp:1.
WARNING: Less than two connections to node nc_06.  This node is used by a:hp:1.
No AC stimulus found:
     Set the value of a current or voltage source to "AC 1."
     to make it behave as a signal generator for AC analysis.
Direct Newton iteration for .op point succeeded.

Date: Sat Oct 21 20:01:58 2023
Total elapsed time: 0.043 seconds.

tnom = 27
temp = 27
method = trap
totiter = 3
traniter = 0
tranpoints = 0
accept = 0
rejected = 0
matrix size = 20
fillins = 3
solver = Normal
Avg thread counts: 8.0/0.0/8.0/8.0
Matrix Compiler1:      57 opcodes
Matrix Compiler2: 1.62 KB object code size
